*SPEF "ieee 1481-1999"
*DESIGN "user_proj_example"
*DATE "11:11:11 Fri 11 11, 1111"
*VENDOR "OpenRCX"
*PROGRAM "Parallel Extraction"
*VERSION "1.0"
*DESIGN_FLOW "NAME_SCOPE LOCAL" "PIN_CAP NONE"
*DIVIDER /
*DELIMITER :
*BUS_DELIMITER []
*T_UNIT 1 NS
*C_UNIT 1 PF
*R_UNIT 1 OHM
*L_UNIT 1 HENRY

*NAME_MAP
*1 io_in[0]
*2 io_in[10]
*3 io_in[11]
*4 io_in[12]
*5 io_in[13]
*6 io_in[14]
*7 io_in[15]
*8 io_in[16]
*9 io_in[17]
*10 io_in[18]
*11 io_in[19]
*12 io_in[1]
*13 io_in[20]
*14 io_in[21]
*15 io_in[22]
*16 io_in[23]
*17 io_in[24]
*18 io_in[25]
*19 io_in[26]
*20 io_in[27]
*21 io_in[28]
*22 io_in[29]
*23 io_in[2]
*24 io_in[30]
*25 io_in[31]
*26 io_in[32]
*27 io_in[33]
*28 io_in[34]
*29 io_in[35]
*30 io_in[36]
*31 io_in[37]
*32 io_in[3]
*33 io_in[4]
*34 io_in[5]
*35 io_in[6]
*36 io_in[7]
*37 io_in[8]
*38 io_in[9]
*39 io_oeb[0]
*40 io_oeb[10]
*41 io_oeb[11]
*42 io_oeb[12]
*43 io_oeb[13]
*44 io_oeb[14]
*45 io_oeb[15]
*46 io_oeb[16]
*47 io_oeb[17]
*48 io_oeb[18]
*49 io_oeb[19]
*50 io_oeb[1]
*51 io_oeb[20]
*52 io_oeb[21]
*53 io_oeb[22]
*54 io_oeb[23]
*55 io_oeb[24]
*56 io_oeb[25]
*57 io_oeb[26]
*58 io_oeb[27]
*59 io_oeb[28]
*60 io_oeb[29]
*61 io_oeb[2]
*62 io_oeb[30]
*63 io_oeb[31]
*64 io_oeb[32]
*65 io_oeb[33]
*66 io_oeb[34]
*67 io_oeb[35]
*68 io_oeb[36]
*69 net248
*70 io_oeb[3]
*71 io_oeb[4]
*72 io_oeb[5]
*73 io_oeb[6]
*74 io_oeb[7]
*75 io_oeb[8]
*76 io_oeb[9]
*77 io_out[0]
*78 io_out[10]
*79 io_out[11]
*80 io_out[12]
*81 io_out[13]
*82 io_out[14]
*83 io_out[15]
*84 io_out[16]
*85 io_out[17]
*86 io_out[18]
*87 io_out[19]
*88 io_out[1]
*89 io_out[20]
*90 io_out[21]
*91 io_out[22]
*92 io_out[23]
*93 io_out[24]
*94 io_out[25]
*95 io_out[26]
*96 io_out[27]
*97 io_out[28]
*98 io_out[29]
*99 io_out[2]
*100 io_out[30]
*101 io_out[31]
*102 net249
*103 net250
*104 net251
*105 net252
*106 net253
*107 net254
*108 io_out[3]
*109 io_out[4]
*110 io_out[5]
*111 io_out[6]
*112 io_out[7]
*113 io_out[8]
*114 io_out[9]
*115 net255
*116 net256
*117 net257
*118 la_data_in[0]
*119 la_data_in[100]
*120 la_data_in[101]
*121 la_data_in[102]
*122 la_data_in[103]
*123 la_data_in[104]
*124 la_data_in[105]
*125 la_data_in[106]
*126 la_data_in[107]
*127 la_data_in[108]
*128 la_data_in[109]
*129 la_data_in[10]
*130 la_data_in[110]
*131 la_data_in[111]
*132 la_data_in[112]
*133 la_data_in[113]
*134 la_data_in[114]
*135 la_data_in[115]
*136 la_data_in[116]
*137 la_data_in[117]
*138 la_data_in[118]
*139 la_data_in[119]
*140 la_data_in[11]
*141 la_data_in[120]
*142 la_data_in[121]
*143 la_data_in[122]
*144 la_data_in[123]
*145 la_data_in[124]
*146 la_data_in[125]
*147 la_data_in[126]
*148 la_data_in[127]
*149 la_data_in[12]
*150 la_data_in[13]
*151 la_data_in[14]
*152 la_data_in[15]
*153 la_data_in[16]
*154 la_data_in[17]
*155 la_data_in[18]
*156 la_data_in[19]
*157 la_data_in[1]
*158 la_data_in[20]
*159 la_data_in[21]
*160 la_data_in[22]
*161 la_data_in[23]
*162 la_data_in[24]
*163 la_data_in[25]
*164 la_data_in[26]
*165 la_data_in[27]
*166 la_data_in[28]
*167 la_data_in[29]
*168 la_data_in[2]
*169 la_data_in[30]
*170 la_data_in[31]
*171 la_data_in[32]
*172 la_data_in[33]
*173 la_data_in[34]
*174 la_data_in[35]
*175 la_data_in[36]
*176 la_data_in[37]
*177 la_data_in[38]
*178 la_data_in[39]
*179 la_data_in[3]
*180 la_data_in[40]
*181 la_data_in[41]
*182 la_data_in[42]
*183 la_data_in[43]
*184 la_data_in[44]
*185 la_data_in[45]
*186 la_data_in[46]
*187 la_data_in[47]
*188 la_data_in[48]
*189 la_data_in[49]
*190 la_data_in[4]
*191 la_data_in[50]
*192 la_data_in[51]
*193 la_data_in[52]
*194 la_data_in[53]
*195 la_data_in[54]
*196 la_data_in[55]
*197 la_data_in[56]
*198 la_data_in[57]
*199 la_data_in[58]
*200 la_data_in[59]
*201 la_data_in[5]
*202 la_data_in[60]
*203 la_data_in[61]
*204 la_data_in[62]
*205 la_data_in[63]
*206 la_data_in[64]
*207 la_data_in[65]
*208 la_data_in[66]
*209 la_data_in[67]
*210 la_data_in[68]
*211 la_data_in[69]
*212 la_data_in[6]
*213 la_data_in[70]
*214 la_data_in[71]
*215 la_data_in[72]
*216 la_data_in[73]
*217 la_data_in[74]
*218 la_data_in[75]
*219 la_data_in[76]
*220 la_data_in[77]
*221 la_data_in[78]
*222 la_data_in[79]
*223 la_data_in[7]
*224 la_data_in[80]
*225 la_data_in[81]
*226 la_data_in[82]
*227 la_data_in[83]
*228 la_data_in[84]
*229 la_data_in[85]
*230 la_data_in[86]
*231 la_data_in[87]
*232 la_data_in[88]
*233 la_data_in[89]
*234 la_data_in[8]
*235 la_data_in[90]
*236 la_data_in[91]
*237 la_data_in[92]
*238 la_data_in[93]
*239 la_data_in[94]
*240 la_data_in[95]
*241 la_data_in[96]
*242 la_data_in[97]
*243 la_data_in[98]
*244 la_data_in[99]
*245 la_data_in[9]
*246 la_data_out[0]
*247 net326
*248 net327
*249 net328
*250 net329
*251 net330
*252 net331
*253 net332
*254 net333
*255 net334
*256 net335
*257 la_data_out[10]
*258 net336
*259 net337
*260 net338
*261 net339
*262 net340
*263 net341
*264 net342
*265 net343
*266 net344
*267 net345
*268 la_data_out[11]
*269 net346
*270 net347
*271 net348
*272 net349
*273 net350
*274 net351
*275 net352
*276 net353
*277 la_data_out[12]
*278 la_data_out[13]
*279 la_data_out[14]
*280 la_data_out[15]
*281 la_data_out[16]
*282 la_data_out[17]
*283 la_data_out[18]
*284 la_data_out[19]
*285 la_data_out[1]
*286 la_data_out[20]
*287 la_data_out[21]
*288 la_data_out[22]
*289 la_data_out[23]
*290 la_data_out[24]
*291 la_data_out[25]
*292 la_data_out[26]
*293 la_data_out[27]
*294 la_data_out[28]
*295 la_data_out[29]
*296 la_data_out[2]
*297 la_data_out[30]
*298 la_data_out[31]
*299 net258
*300 net259
*301 net260
*302 net261
*303 net262
*304 net263
*305 net264
*306 net265
*307 la_data_out[3]
*308 net266
*309 net267
*310 net268
*311 net269
*312 net270
*313 net271
*314 net272
*315 net273
*316 net274
*317 net275
*318 la_data_out[4]
*319 net276
*320 net277
*321 net278
*322 net279
*323 net280
*324 net281
*325 net282
*326 net283
*327 net284
*328 net285
*329 la_data_out[5]
*330 net286
*331 net287
*332 net288
*333 net289
*334 net290
*335 net291
*336 net292
*337 net293
*338 net294
*339 net295
*340 la_data_out[6]
*341 net296
*342 net297
*343 net298
*344 net299
*345 net300
*346 net301
*347 net302
*348 net303
*349 net304
*350 net305
*351 la_data_out[7]
*352 net306
*353 net307
*354 net308
*355 net309
*356 net310
*357 net311
*358 net312
*359 net313
*360 net314
*361 net315
*362 la_data_out[8]
*363 net316
*364 net317
*365 net318
*366 net319
*367 net320
*368 net321
*369 net322
*370 net323
*371 net324
*372 net325
*373 la_data_out[9]
*374 la_oenb[0]
*375 la_oenb[100]
*376 la_oenb[101]
*377 la_oenb[102]
*378 la_oenb[103]
*379 la_oenb[104]
*380 la_oenb[105]
*381 la_oenb[106]
*382 la_oenb[107]
*383 la_oenb[108]
*384 la_oenb[109]
*385 la_oenb[10]
*386 la_oenb[110]
*387 la_oenb[111]
*388 la_oenb[112]
*389 la_oenb[113]
*390 la_oenb[114]
*391 la_oenb[115]
*392 la_oenb[116]
*393 la_oenb[117]
*394 la_oenb[118]
*395 la_oenb[119]
*396 la_oenb[11]
*397 la_oenb[120]
*398 la_oenb[121]
*399 la_oenb[122]
*400 la_oenb[123]
*401 la_oenb[124]
*402 la_oenb[125]
*403 la_oenb[126]
*404 la_oenb[127]
*405 la_oenb[12]
*406 la_oenb[13]
*407 la_oenb[14]
*408 la_oenb[15]
*409 la_oenb[16]
*410 la_oenb[17]
*411 la_oenb[18]
*412 la_oenb[19]
*413 la_oenb[1]
*414 la_oenb[20]
*415 la_oenb[21]
*416 la_oenb[22]
*417 la_oenb[23]
*418 la_oenb[24]
*419 la_oenb[25]
*420 la_oenb[26]
*421 la_oenb[27]
*422 la_oenb[28]
*423 la_oenb[29]
*424 la_oenb[2]
*425 la_oenb[30]
*426 la_oenb[31]
*427 la_oenb[32]
*428 la_oenb[33]
*429 la_oenb[34]
*430 la_oenb[35]
*431 la_oenb[36]
*432 la_oenb[37]
*433 la_oenb[38]
*434 la_oenb[39]
*435 la_oenb[3]
*436 la_oenb[40]
*437 la_oenb[41]
*438 la_oenb[42]
*439 la_oenb[43]
*440 la_oenb[44]
*441 la_oenb[45]
*442 la_oenb[46]
*443 la_oenb[47]
*444 la_oenb[48]
*445 la_oenb[49]
*446 la_oenb[4]
*447 la_oenb[50]
*448 la_oenb[51]
*449 la_oenb[52]
*450 la_oenb[53]
*451 la_oenb[54]
*452 la_oenb[55]
*453 la_oenb[56]
*454 la_oenb[57]
*455 la_oenb[58]
*456 la_oenb[59]
*457 la_oenb[5]
*458 la_oenb[60]
*459 la_oenb[61]
*460 la_oenb[62]
*461 la_oenb[63]
*462 la_oenb[64]
*463 la_oenb[65]
*464 la_oenb[66]
*465 la_oenb[67]
*466 la_oenb[68]
*467 la_oenb[69]
*468 la_oenb[6]
*469 la_oenb[70]
*470 la_oenb[71]
*471 la_oenb[72]
*472 la_oenb[73]
*473 la_oenb[74]
*474 la_oenb[75]
*475 la_oenb[76]
*476 la_oenb[77]
*477 la_oenb[78]
*478 la_oenb[79]
*479 la_oenb[7]
*480 la_oenb[80]
*481 la_oenb[81]
*482 la_oenb[82]
*483 la_oenb[83]
*484 la_oenb[84]
*485 la_oenb[85]
*486 la_oenb[86]
*487 la_oenb[87]
*488 la_oenb[88]
*489 la_oenb[89]
*490 la_oenb[8]
*491 la_oenb[90]
*492 la_oenb[91]
*493 la_oenb[92]
*494 la_oenb[93]
*495 la_oenb[94]
*496 la_oenb[95]
*497 la_oenb[96]
*498 la_oenb[97]
*499 la_oenb[98]
*500 la_oenb[99]
*501 la_oenb[9]
*504 wb_clk_i
*505 wb_rst_i
*506 wbs_ack_o
*507 wbs_adr_i[0]
*508 wbs_adr_i[10]
*509 wbs_adr_i[11]
*510 wbs_adr_i[12]
*511 wbs_adr_i[13]
*512 wbs_adr_i[14]
*513 wbs_adr_i[15]
*514 wbs_adr_i[16]
*515 wbs_adr_i[17]
*516 wbs_adr_i[18]
*517 wbs_adr_i[19]
*518 wbs_adr_i[1]
*519 wbs_adr_i[20]
*520 wbs_adr_i[21]
*521 wbs_adr_i[22]
*522 wbs_adr_i[23]
*523 wbs_adr_i[24]
*524 wbs_adr_i[25]
*525 wbs_adr_i[26]
*526 wbs_adr_i[27]
*527 wbs_adr_i[28]
*528 wbs_adr_i[29]
*529 wbs_adr_i[2]
*530 wbs_adr_i[30]
*531 wbs_adr_i[31]
*532 wbs_adr_i[3]
*533 wbs_adr_i[4]
*534 wbs_adr_i[5]
*535 wbs_adr_i[6]
*536 wbs_adr_i[7]
*537 wbs_adr_i[8]
*538 wbs_adr_i[9]
*539 wbs_cyc_i
*540 wbs_dat_i[0]
*541 wbs_dat_i[10]
*542 wbs_dat_i[11]
*543 wbs_dat_i[12]
*544 wbs_dat_i[13]
*545 wbs_dat_i[14]
*546 wbs_dat_i[15]
*547 wbs_dat_i[16]
*548 wbs_dat_i[17]
*549 wbs_dat_i[18]
*550 wbs_dat_i[19]
*551 wbs_dat_i[1]
*552 wbs_dat_i[20]
*553 wbs_dat_i[21]
*554 wbs_dat_i[22]
*555 wbs_dat_i[23]
*556 wbs_dat_i[24]
*557 wbs_dat_i[25]
*558 wbs_dat_i[26]
*559 wbs_dat_i[27]
*560 wbs_dat_i[28]
*561 wbs_dat_i[29]
*562 wbs_dat_i[2]
*563 wbs_dat_i[30]
*564 wbs_dat_i[31]
*565 wbs_dat_i[3]
*566 wbs_dat_i[4]
*567 wbs_dat_i[5]
*568 wbs_dat_i[6]
*569 wbs_dat_i[7]
*570 wbs_dat_i[8]
*571 wbs_dat_i[9]
*572 wbs_dat_o[0]
*573 wbs_dat_o[10]
*574 wbs_dat_o[11]
*575 wbs_dat_o[12]
*576 wbs_dat_o[13]
*577 wbs_dat_o[14]
*578 wbs_dat_o[15]
*579 wbs_dat_o[16]
*580 wbs_dat_o[17]
*581 wbs_dat_o[18]
*582 wbs_dat_o[19]
*583 wbs_dat_o[1]
*584 wbs_dat_o[20]
*585 wbs_dat_o[21]
*586 wbs_dat_o[22]
*587 wbs_dat_o[23]
*588 wbs_dat_o[24]
*589 wbs_dat_o[25]
*590 wbs_dat_o[26]
*591 wbs_dat_o[27]
*592 wbs_dat_o[28]
*593 wbs_dat_o[29]
*594 wbs_dat_o[2]
*595 wbs_dat_o[30]
*596 wbs_dat_o[31]
*597 wbs_dat_o[3]
*598 wbs_dat_o[4]
*599 wbs_dat_o[5]
*600 wbs_dat_o[6]
*601 wbs_dat_o[7]
*602 wbs_dat_o[8]
*603 wbs_dat_o[9]
*604 wbs_sel_i[0]
*605 wbs_sel_i[1]
*606 wbs_sel_i[2]
*607 wbs_sel_i[3]
*608 wbs_stb_i
*609 wbs_we_i
*610 _000_
*611 _001_
*612 _002_
*613 _003_
*614 _004_
*615 _005_
*616 _006_
*617 _007_
*618 _008_
*619 _009_
*620 _010_
*621 _011_
*622 _012_
*623 _013_
*624 _014_
*625 _015_
*626 _016_
*627 _017_
*628 _018_
*629 _019_
*630 _020_
*631 _021_
*632 _022_
*633 _023_
*634 _024_
*635 _025_
*636 _026_
*637 _027_
*638 _028_
*639 _029_
*640 _030_
*641 _031_
*642 _032_
*643 _033_
*644 _034_
*645 _035_
*646 _036_
*647 _037_
*648 _038_
*649 _039_
*650 _040_
*651 _041_
*652 _042_
*653 _043_
*654 _044_
*655 _045_
*656 _046_
*657 _047_
*658 _048_
*659 _049_
*660 _050_
*661 _051_
*662 _052_
*663 _053_
*664 _054_
*665 _055_
*666 _056_
*667 _057_
*668 _058_
*669 _059_
*670 _060_
*671 _061_
*672 _062_
*673 _063_
*674 _064_
*675 _065_
*676 _066_
*677 _067_
*678 _068_
*679 _069_
*680 _070_
*681 _071_
*682 _072_
*683 _073_
*684 _074_
*685 _075_
*686 _076_
*687 _077_
*688 _078_
*689 _079_
*690 _080_
*691 _081_
*692 _082_
*693 _083_
*694 _084_
*695 _085_
*696 _086_
*697 _087_
*698 _088_
*699 _089_
*700 _090_
*701 _091_
*702 _092_
*703 _093_
*704 _094_
*705 _095_
*706 _096_
*707 _097_
*708 _098_
*709 _099_
*710 _100_
*711 _101_
*712 _102_
*713 _103_
*714 _104_
*715 _105_
*716 _106_
*717 _107_
*718 _108_
*719 _109_
*720 _110_
*721 _111_
*722 _112_
*723 _113_
*724 _114_
*725 _115_
*726 _116_
*727 _117_
*728 _118_
*729 _119_
*730 _120_
*731 _121_
*732 _122_
*733 _123_
*734 _124_
*735 _125_
*736 _126_
*737 _127_
*738 _128_
*739 _129_
*740 _130_
*741 _131_
*742 _132_
*743 _133_
*744 _134_
*745 _135_
*746 _136_
*747 _137_
*748 _138_
*749 _139_
*750 _140_
*751 _141_
*752 _142_
*753 _143_
*754 _144_
*755 _145_
*756 _146_
*757 _147_
*758 _148_
*759 _149_
*760 _150_
*761 _151_
*762 _152_
*763 _153_
*764 _154_
*765 _155_
*766 _156_
*767 _157_
*768 _158_
*769 _159_
*770 _160_
*771 _161_
*772 _162_
*773 _163_
*774 _164_
*775 _165_
*776 _166_
*777 _167_
*778 _168_
*779 _169_
*780 _170_
*781 _171_
*782 _172_
*783 _173_
*784 _174_
*785 _175_
*786 _176_
*787 _177_
*788 _178_
*789 _179_
*790 _180_
*791 _181_
*792 _182_
*793 _183_
*794 _184_
*795 _185_
*796 _186_
*797 _187_
*798 _188_
*799 _189_
*800 _190_
*801 _191_
*802 _192_
*803 _193_
*804 _194_
*805 _195_
*806 _196_
*807 _197_
*808 _198_
*809 _199_
*810 _200_
*811 _201_
*812 _202_
*813 _203_
*814 _204_
*815 _205_
*816 _206_
*817 _207_
*818 _208_
*819 _209_
*820 _210_
*821 _211_
*822 _212_
*823 _213_
*824 _214_
*825 _215_
*826 _216_
*827 _217_
*828 _218_
*829 _219_
*830 _220_
*831 _221_
*832 _222_
*833 _223_
*834 _224_
*835 _225_
*836 _226_
*837 _227_
*838 _228_
*839 _229_
*840 _230_
*841 _231_
*842 _232_
*843 _233_
*844 _234_
*845 _235_
*846 _236_
*847 _237_
*848 _238_
*849 _239_
*850 _240_
*851 _241_
*852 _242_
*853 _243_
*854 _244_
*855 _245_
*856 _246_
*857 _247_
*858 _248_
*859 _249_
*860 _250_
*861 _251_
*862 _252_
*863 _253_
*864 _254_
*865 _255_
*866 _256_
*867 _257_
*868 _258_
*869 _259_
*870 _260_
*871 _261_
*872 _262_
*873 _263_
*874 _264_
*875 _265_
*876 _266_
*877 _267_
*878 _268_
*879 _269_
*880 _270_
*881 _271_
*882 _272_
*883 _273_
*884 _274_
*885 _275_
*886 _276_
*887 _277_
*888 _278_
*889 _279_
*890 _280_
*891 _281_
*892 _282_
*893 _283_
*894 _284_
*895 _285_
*896 _286_
*897 _287_
*898 _288_
*899 _289_
*900 _290_
*901 _291_
*902 _292_
*903 _293_
*904 _294_
*905 _295_
*906 _296_
*907 _297_
*908 _298_
*909 _299_
*910 _300_
*911 _301_
*912 _302_
*913 clknet_0_counter\.clk
*914 clknet_3_0__leaf_counter\.clk
*915 clknet_3_1__leaf_counter\.clk
*916 clknet_3_2__leaf_counter\.clk
*917 clknet_3_3__leaf_counter\.clk
*918 clknet_3_4__leaf_counter\.clk
*919 clknet_3_5__leaf_counter\.clk
*920 clknet_3_6__leaf_counter\.clk
*921 clknet_3_7__leaf_counter\.clk
*922 counter\.clk
*923 net1
*924 net10
*925 net100
*926 net101
*927 net102
*928 net103
*929 net104
*930 net105
*931 net106
*932 net107
*933 net108
*934 net109
*935 net11
*936 net110
*937 net111
*938 net112
*939 net113
*940 net114
*941 net115
*942 net116
*943 net117
*944 net118
*945 net119
*946 net12
*947 net120
*948 net121
*949 net122
*950 net123
*951 net124
*952 net125
*953 net126
*954 net127
*955 net128
*956 net129
*957 net13
*958 net130
*959 net131
*960 net132
*961 net133
*962 net134
*963 net135
*964 net136
*965 net137
*966 net138
*967 net139
*968 net14
*969 net140
*970 net141
*971 net142
*972 net143
*973 net144
*974 net145
*975 net146
*976 net147
*977 net148
*978 net149
*979 net15
*980 net150
*981 net151
*982 net152
*983 net153
*984 net154
*985 net155
*986 net156
*987 net157
*988 net158
*989 net159
*990 net16
*991 net160
*992 net161
*993 net162
*994 net163
*995 net164
*996 net165
*997 net166
*998 net167
*999 net168
*1000 net169
*1001 net17
*1002 net170
*1003 net171
*1004 net172
*1005 net173
*1006 net174
*1007 net175
*1008 net176
*1009 net177
*1010 net178
*1011 net179
*1012 net18
*1013 net180
*1014 net181
*1015 net182
*1016 net183
*1017 net184
*1018 net185
*1019 net186
*1020 net187
*1021 net188
*1022 net189
*1023 net19
*1024 net190
*1025 net191
*1026 net192
*1027 net193
*1028 net194
*1029 net195
*1030 net196
*1031 net197
*1032 net198
*1033 net199
*1034 net2
*1035 net20
*1036 net200
*1037 net201
*1038 net202
*1039 net203
*1040 net204
*1041 net205
*1042 net206
*1043 net207
*1044 net208
*1045 net209
*1046 net21
*1047 net210
*1048 net211
*1049 net212
*1050 net213
*1051 net214
*1052 net215
*1053 net216
*1054 net217
*1055 net218
*1056 net219
*1057 net22
*1058 net220
*1059 net221
*1060 net222
*1061 net223
*1062 net224
*1063 net225
*1064 net226
*1065 net227
*1066 net228
*1067 net229
*1068 net23
*1069 net230
*1070 net231
*1071 net232
*1072 net233
*1073 net234
*1074 net235
*1075 net236
*1076 net237
*1077 net238
*1078 net239
*1079 net24
*1080 net240
*1081 net241
*1082 net242
*1083 net243
*1084 net244
*1085 net245
*1086 net246
*1087 net247
*1088 net25
*1089 net26
*1090 net27
*1091 net28
*1092 net29
*1093 net3
*1094 net30
*1095 net31
*1096 net32
*1097 net33
*1098 net34
*1099 net35
*1100 net36
*1101 net37
*1102 net38
*1103 net39
*1104 net4
*1105 net40
*1106 net41
*1107 net42
*1108 net43
*1109 net44
*1110 net45
*1111 net46
*1112 net47
*1113 net48
*1114 net49
*1115 net5
*1116 net50
*1117 net51
*1118 net52
*1119 net53
*1120 net54
*1121 net55
*1122 net56
*1123 net57
*1124 net58
*1125 net59
*1126 net6
*1127 net60
*1128 net61
*1129 net62
*1130 net63
*1131 net64
*1132 net65
*1133 net66
*1134 net67
*1135 net68
*1136 net69
*1137 net7
*1138 net70
*1139 net71
*1140 net72
*1141 net73
*1142 net74
*1143 net75
*1144 net76
*1145 net77
*1146 net78
*1147 net79
*1148 net8
*1149 net80
*1150 net81
*1151 net82
*1152 net83
*1153 net84
*1154 net85
*1155 net86
*1156 net87
*1157 net88
*1158 net89
*1159 net9
*1160 net90
*1161 net91
*1162 net92
*1163 net93
*1164 net94
*1165 net95
*1166 net96
*1167 net97
*1168 net98
*1169 net99
*1170 ANTENNA__304__A1
*1171 ANTENNA__305__A
*1172 ANTENNA__306__A0
*1173 ANTENNA__306__A1
*1174 ANTENNA__306__S
*1175 ANTENNA__308__A
*1176 ANTENNA__308__B
*1177 ANTENNA__309__A
*1178 ANTENNA__309__B
*1179 ANTENNA__310__A
*1180 ANTENNA__310__B
*1181 ANTENNA__311__A
*1182 ANTENNA__313__A
*1183 ANTENNA__314__A
*1184 ANTENNA__315__A
*1185 ANTENNA__315__B
*1186 ANTENNA__316__A
*1187 ANTENNA__316__B
*1188 ANTENNA__317__A
*1189 ANTENNA__318__A2
*1190 ANTENNA__318__A3
*1191 ANTENNA__318__A4
*1192 ANTENNA__318__B1
*1193 ANTENNA__319__A1
*1194 ANTENNA__319__A2
*1195 ANTENNA__319__A3
*1196 ANTENNA__319__A4
*1197 ANTENNA__319__B1
*1198 ANTENNA__320__A3
*1199 ANTENNA__320__A4
*1200 ANTENNA__320__B1
*1201 ANTENNA__321__B1
*1202 ANTENNA__323__A4
*1203 ANTENNA__323__B1
*1204 ANTENNA__324__B1
*1205 ANTENNA__325__A1
*1206 ANTENNA__325__A2
*1207 ANTENNA__325__A4
*1208 ANTENNA__325__B1
*1209 ANTENNA__326__A1
*1210 ANTENNA__326__B1
*1211 ANTENNA__328__A_N
*1212 ANTENNA__329__A1
*1213 ANTENNA__329__B1
*1214 ANTENNA__330__A
*1215 ANTENNA__330__B
*1216 ANTENNA__330__C
*1217 ANTENNA__331__A
*1218 ANTENNA__332__C
*1219 ANTENNA__333__B1
*1220 ANTENNA__333__B2
*1221 ANTENNA__333__C1
*1222 ANTENNA__334__A
*1223 ANTENNA__336__A
*1224 ANTENNA__336__B
*1225 ANTENNA__337__A
*1226 ANTENNA__337__B
*1227 ANTENNA__339__A
*1228 ANTENNA__340__A
*1229 ANTENNA__341__A2
*1230 ANTENNA__341__B1
*1231 ANTENNA__341__B2
*1232 ANTENNA__342__A
*1233 ANTENNA__343__B1
*1234 ANTENNA__344__A
*1235 ANTENNA__344__B
*1236 ANTENNA__344__C
*1237 ANTENNA__345__A1
*1238 ANTENNA__345__A2
*1239 ANTENNA__345__B1
*1240 ANTENNA__347__A
*1241 ANTENNA__348__A2
*1242 ANTENNA__348__B1
*1243 ANTENNA__348__B2
*1244 ANTENNA__349__B1
*1245 ANTENNA__350__A
*1246 ANTENNA__350__B
*1247 ANTENNA__350__C
*1248 ANTENNA__350__D
*1249 ANTENNA__352__A1
*1250 ANTENNA__352__A2
*1251 ANTENNA__352__A3
*1252 ANTENNA__352__B1
*1253 ANTENNA__354__A
*1254 ANTENNA__355__A2
*1255 ANTENNA__355__B1
*1256 ANTENNA__355__B2
*1257 ANTENNA__356__B1
*1258 ANTENNA__357__A1
*1259 ANTENNA__358__A1
*1260 ANTENNA__360__A2
*1261 ANTENNA__360__B1
*1262 ANTENNA__360__B2
*1263 ANTENNA__361__B1
*1264 ANTENNA__362__A
*1265 ANTENNA__362__B
*1266 ANTENNA__364__A1
*1267 ANTENNA__364__B1
*1268 ANTENNA__367__A2
*1269 ANTENNA__367__B1
*1270 ANTENNA__367__B2
*1271 ANTENNA__368__B1
*1272 ANTENNA__369__A
*1273 ANTENNA__369__B
*1274 ANTENNA__369__C
*1275 ANTENNA__370__A1
*1276 ANTENNA__371__B
*1277 ANTENNA__372__B
*1278 ANTENNA__373__B1
*1279 ANTENNA__374__A
*1280 ANTENNA__375__A
*1281 ANTENNA__376__A
*1282 ANTENNA__378__A
*1283 ANTENNA__379__A2
*1284 ANTENNA__379__B1
*1285 ANTENNA__379__B2
*1286 ANTENNA__380__B1
*1287 ANTENNA__381__A
*1288 ANTENNA__381__B
*1289 ANTENNA__382__A1
*1290 ANTENNA__382__B1
*1291 ANTENNA__383__A
*1292 ANTENNA__384__A
*1293 ANTENNA__384__B
*1294 ANTENNA__384__C
*1295 ANTENNA__386__C
*1296 ANTENNA__387__B1
*1297 ANTENNA__387__B2
*1298 ANTENNA__387__C1
*1299 ANTENNA__388__A
*1300 ANTENNA__390__A1
*1301 ANTENNA__390__A2
*1302 ANTENNA__390__B1
*1303 ANTENNA__391__A
*1304 ANTENNA__391__B
*1305 ANTENNA__392__A
*1306 ANTENNA__396__B1
*1307 ANTENNA__396__B2
*1308 ANTENNA__397__B1
*1309 ANTENNA__398__A
*1310 ANTENNA__398__B
*1311 ANTENNA__399__A1
*1312 ANTENNA__400__B
*1313 ANTENNA__401__A
*1314 ANTENNA__401__B
*1315 ANTENNA__402__B1
*1316 ANTENNA__403__A
*1317 ANTENNA__404__A1
*1318 ANTENNA__405__A1
*1319 ANTENNA__406__A
*1320 ANTENNA__407__A2
*1321 ANTENNA__407__B1
*1322 ANTENNA__407__B2
*1323 ANTENNA__408__B1
*1324 ANTENNA__409__A1
*1325 ANTENNA__409__B1
*1326 ANTENNA__410__A
*1327 ANTENNA__410__B
*1328 ANTENNA__412__C
*1329 ANTENNA__413__A1
*1330 ANTENNA__413__A2
*1331 ANTENNA__413__C1
*1332 ANTENNA__414__A
*1333 ANTENNA__416__A
*1334 ANTENNA__416__B
*1335 ANTENNA__416__C
*1336 ANTENNA__417__A1
*1337 ANTENNA__418__B
*1338 ANTENNA__419__A
*1339 ANTENNA__419__B
*1340 ANTENNA__420__B1
*1341 ANTENNA__421__A
*1342 ANTENNA__422__A1
*1343 ANTENNA__423__A1
*1344 ANTENNA__424__A
*1345 ANTENNA__425__A2
*1346 ANTENNA__425__B1
*1347 ANTENNA__425__B2
*1348 ANTENNA__426__B1
*1349 ANTENNA__427__A
*1350 ANTENNA__427__B
*1351 ANTENNA__429__A1
*1352 ANTENNA__429__B1
*1353 ANTENNA__431__A
*1354 ANTENNA__432__A2
*1355 ANTENNA__432__B1
*1356 ANTENNA__432__B2
*1357 ANTENNA__433__B1
*1358 ANTENNA__434__A
*1359 ANTENNA__434__B
*1360 ANTENNA__434__C
*1361 ANTENNA__435__A
*1362 ANTENNA__435__B
*1363 ANTENNA__437__A
*1364 ANTENNA__438__A
*1365 ANTENNA__438__B
*1366 ANTENNA__439__A1
*1367 ANTENNA__439__B1
*1368 ANTENNA__440__A1
*1369 ANTENNA__440__B1
*1370 ANTENNA__441__A3
*1371 ANTENNA__442__B1
*1372 ANTENNA__443__A
*1373 ANTENNA__443__B
*1374 ANTENNA__444__A
*1375 ANTENNA__444__B
*1376 ANTENNA__445__A
*1377 ANTENNA__446__A1
*1378 ANTENNA__446__B1
*1379 ANTENNA__448__A
*1380 ANTENNA__449__B1
*1381 ANTENNA__449__B2
*1382 ANTENNA__450__A
*1383 ANTENNA__452__A1
*1384 ANTENNA__452__A2
*1385 ANTENNA__452__B1
*1386 ANTENNA__453__A1
*1387 ANTENNA__453__A2
*1388 ANTENNA__455__B1
*1389 ANTENNA__455__B2
*1390 ANTENNA__457__A
*1391 ANTENNA__457__B
*1392 ANTENNA__457__C
*1393 ANTENNA__459__A1
*1394 ANTENNA__459__A2
*1395 ANTENNA__459__B1
*1396 ANTENNA__460__A
*1397 ANTENNA__462__B1
*1398 ANTENNA__462__B2
*1399 ANTENNA__464__A
*1400 ANTENNA__465__A1
*1401 ANTENNA__465__B1
*1402 ANTENNA__468__B1
*1403 ANTENNA__468__B2
*1404 ANTENNA__470__A
*1405 ANTENNA__470__B
*1406 ANTENNA__471__A
*1407 ANTENNA__471__B
*1408 ANTENNA__471__C
*1409 ANTENNA__473__A1
*1410 ANTENNA__473__C1
*1411 ANTENNA__475__B1
*1412 ANTENNA__475__B2
*1413 ANTENNA__477__A1
*1414 ANTENNA__477__B1
*1415 ANTENNA__478__A1
*1416 ANTENNA__480__B1
*1417 ANTENNA__480__B2
*1418 ANTENNA__482__A
*1419 ANTENNA__482__B
*1420 ANTENNA__484__A1
*1421 ANTENNA__484__B1
*1422 ANTENNA__485__A
*1423 ANTENNA__487__B1
*1424 ANTENNA__487__B2
*1425 ANTENNA__489__A
*1426 ANTENNA__490__A
*1427 ANTENNA__490__B
*1428 ANTENNA__491__A1
*1429 ANTENNA__491__B1
*1430 ANTENNA__492__A1
*1431 ANTENNA__494__A
*1432 ANTENNA__495__A
*1433 ANTENNA__495__B
*1434 ANTENNA__495__C
*1435 ANTENNA__496__B2
*1436 ANTENNA__498__A
*1437 ANTENNA__498__B
*1438 ANTENNA__499__A
*1439 ANTENNA__499__B
*1440 ANTENNA__501__A1
*1441 ANTENNA__503__B2
*1442 ANTENNA__505__A
*1443 ANTENNA__506__A
*1444 ANTENNA__508__A
*1445 ANTENNA__509__B2
*1446 ANTENNA__511__A
*1447 ANTENNA__512__A_N
*1448 ANTENNA__512__B
*1449 ANTENNA__512__C
*1450 ANTENNA__513__A1
*1451 ANTENNA__514__A
*1452 ANTENNA__516__A
*1453 ANTENNA__516__B
*1454 ANTENNA__516__C
*1455 ANTENNA__519__A1
*1456 ANTENNA__519__A2
*1457 ANTENNA__519__B1
*1458 ANTENNA__520__A
*1459 ANTENNA__521__A2
*1460 ANTENNA__521__A3
*1461 ANTENNA__521__B2
*1462 ANTENNA__523__A
*1463 ANTENNA__525__A1
*1464 ANTENNA__526__A1
*1465 ANTENNA__527__A
*1466 ANTENNA__528__A2
*1467 ANTENNA__528__A3
*1468 ANTENNA__528__B2
*1469 ANTENNA__529__B1
*1470 ANTENNA__530__A_N
*1471 ANTENNA__530__C
*1472 ANTENNA__531__A1
*1473 ANTENNA__531__B1
*1474 ANTENNA__532__A
*1475 ANTENNA__532__B
*1476 ANTENNA__533__B2
*1477 ANTENNA__534__B1
*1478 ANTENNA__535__A
*1479 ANTENNA__535__B
*1480 ANTENNA__535__C
*1481 ANTENNA__536__A1
*1482 ANTENNA__536__A2
*1483 ANTENNA__536__B1
*1484 ANTENNA__537__A
*1485 ANTENNA__538__A2
*1486 ANTENNA__538__A3
*1487 ANTENNA__538__B2
*1488 ANTENNA__540__A
*1489 ANTENNA__542__A0
*1490 ANTENNA__544__A0
*1491 ANTENNA__546__A0
*1492 ANTENNA__548__A0
*1493 ANTENNA__550__A0
*1494 ANTENNA__552__A0
*1495 ANTENNA__554__A0
*1496 ANTENNA__556__A0
*1497 ANTENNA__558__A0
*1498 ANTENNA__560__A
*1499 ANTENNA__561__A0
*1500 ANTENNA__563__A0
*1501 ANTENNA__565__A0
*1502 ANTENNA__567__A0
*1503 ANTENNA__569__A0
*1504 ANTENNA__571__A0
*1505 ANTENNA__573__A0
*1506 ANTENNA__575__A0
*1507 ANTENNA__577__A0
*1508 ANTENNA__579__A0
*1509 ANTENNA__581__A
*1510 ANTENNA__582__A0
*1511 ANTENNA__582__A1
*1512 ANTENNA__584__A0
*1513 ANTENNA__584__A1
*1514 ANTENNA__586__A0
*1515 ANTENNA__586__A1
*1516 ANTENNA__588__A0
*1517 ANTENNA__588__A1
*1518 ANTENNA__590__A0
*1519 ANTENNA__590__A1
*1520 ANTENNA__592__A0
*1521 ANTENNA__592__A1
*1522 ANTENNA__594__A0
*1523 ANTENNA__594__A1
*1524 ANTENNA__596__A0
*1525 ANTENNA__596__A1
*1526 ANTENNA__598__A0
*1527 ANTENNA__598__A1
*1528 ANTENNA__600__A0
*1529 ANTENNA__600__A1
*1530 ANTENNA__602__A0
*1531 ANTENNA__602__A1
*1532 ANTENNA__602__S
*1533 ANTENNA__604__A0
*1534 ANTENNA__604__A1
*1535 ANTENNA__604__S
*1536 ANTENNA__606__A0
*1537 ANTENNA__606__A1
*1538 ANTENNA__606__S
*1539 ANTENNA__608__CLK
*1540 ANTENNA__609__CLK
*1541 ANTENNA__610__CLK
*1542 ANTENNA__611__CLK
*1543 ANTENNA__612__CLK
*1544 ANTENNA__613__CLK
*1545 ANTENNA__619__CLK
*1546 ANTENNA__620__CLK
*1547 ANTENNA__621__CLK
*1548 ANTENNA__622__CLK
*1549 ANTENNA__623__CLK
*1550 ANTENNA__625__CLK
*1551 ANTENNA__626__CLK
*1552 ANTENNA__627__CLK
*1553 ANTENNA__628__CLK
*1554 ANTENNA__629__CLK
*1555 ANTENNA__630__CLK
*1556 ANTENNA__631__CLK
*1557 ANTENNA__632__CLK
*1558 ANTENNA__633__CLK
*1559 ANTENNA__634__CLK
*1560 ANTENNA__635__CLK
*1561 ANTENNA__636__CLK
*1562 ANTENNA__637__CLK
*1563 ANTENNA__638__CLK
*1564 ANTENNA__639__CLK
*1565 ANTENNA__640__CLK
*1566 ANTENNA__641__CLK
*1567 ANTENNA__642__CLK
*1568 ANTENNA__643__CLK
*1569 ANTENNA__644__CLK
*1570 ANTENNA__645__CLK
*1571 ANTENNA__646__CLK
*1572 ANTENNA__647__CLK
*1573 ANTENNA__648__CLK
*1574 ANTENNA__649__CLK
*1575 ANTENNA__650__CLK
*1576 ANTENNA__651__CLK
*1577 ANTENNA__652__CLK
*1578 ANTENNA__653__CLK
*1579 ANTENNA__654__CLK
*1580 ANTENNA__655__CLK
*1581 ANTENNA__656__CLK
*1582 ANTENNA__657__CLK
*1583 ANTENNA__658__CLK
*1584 ANTENNA__659__CLK
*1585 ANTENNA__662__CLK
*1586 ANTENNA__665__CLK
*1587 ANTENNA__666__CLK
*1588 ANTENNA__667__CLK
*1589 ANTENNA__668__CLK
*1590 ANTENNA__670__CLK
*1591 ANTENNA__671__CLK
*1592 ANTENNA__672__CLK
*1593 ANTENNA__779__A
*1594 ANTENNA__780__A
*1595 ANTENNA__781__A
*1596 ANTENNA__782__A
*1597 ANTENNA__783__A
*1598 ANTENNA__784__A
*1599 ANTENNA__785__A
*1600 ANTENNA__786__A
*1601 ANTENNA__787__A
*1602 ANTENNA__788__A
*1603 ANTENNA__789__A
*1604 ANTENNA__790__A
*1605 ANTENNA__791__A
*1606 ANTENNA__792__A
*1607 ANTENNA__793__A
*1608 ANTENNA__794__A
*1609 ANTENNA__795__A
*1610 ANTENNA__796__A
*1611 ANTENNA__797__A
*1612 ANTENNA__798__A
*1613 ANTENNA__799__A
*1614 ANTENNA__800__A
*1615 ANTENNA__801__A
*1616 ANTENNA__802__A
*1617 ANTENNA__803__A
*1618 ANTENNA__804__A
*1619 ANTENNA__805__A
*1620 ANTENNA__806__A
*1621 ANTENNA__807__A
*1622 ANTENNA__808__A
*1623 ANTENNA__809__A
*1624 ANTENNA__810__A
*1625 ANTENNA__811__A
*1626 ANTENNA__812__A
*1627 ANTENNA__813__A
*1628 ANTENNA__814__A
*1629 ANTENNA__815__A
*1630 ANTENNA__816__A
*1631 ANTENNA__817__A
*1632 ANTENNA__818__A
*1633 ANTENNA__819__A
*1634 ANTENNA__820__A
*1635 ANTENNA__821__A
*1636 ANTENNA__822__A
*1637 ANTENNA__823__A
*1638 ANTENNA__824__A
*1639 ANTENNA__825__A
*1640 ANTENNA__826__A
*1641 ANTENNA__827__A
*1642 ANTENNA__828__A
*1643 ANTENNA__829__A
*1644 ANTENNA__830__A
*1645 ANTENNA__831__A
*1646 ANTENNA__832__A
*1647 ANTENNA__833__A
*1648 ANTENNA__834__A
*1649 ANTENNA__835__A
*1650 ANTENNA__836__A
*1651 ANTENNA__837__A
*1652 ANTENNA__838__A
*1653 ANTENNA__839__A
*1654 ANTENNA__840__A
*1655 ANTENNA__841__A
*1656 ANTENNA__842__A
*1657 ANTENNA__843__A
*1658 ANTENNA__844__A
*1659 ANTENNA__845__A
*1660 ANTENNA__846__A
*1661 ANTENNA_clkbuf_0_counter\.clk_A
*1662 ANTENNA_fanout243_A
*1663 ANTENNA_fanout244_A
*1664 ANTENNA_fanout245_A
*1665 ANTENNA_fanout246_A
*1666 ANTENNA_fanout247_A
*1667 ANTENNA_input100_A
*1668 ANTENNA_input101_A
*1669 ANTENNA_input102_A
*1670 ANTENNA_input103_A
*1671 ANTENNA_input104_A
*1672 ANTENNA_input105_A
*1673 ANTENNA_input106_A
*1674 ANTENNA_input107_A
*1675 ANTENNA_input108_A
*1676 ANTENNA_input10_A
*1677 ANTENNA_input11_A
*1678 ANTENNA_input12_A
*1679 ANTENNA_input13_A
*1680 ANTENNA_input14_A
*1681 ANTENNA_input15_A
*1682 ANTENNA_input16_A
*1683 ANTENNA_input17_A
*1684 ANTENNA_input18_A
*1685 ANTENNA_input19_A
*1686 ANTENNA_input1_A
*1687 ANTENNA_input20_A
*1688 ANTENNA_input21_A
*1689 ANTENNA_input22_A
*1690 ANTENNA_input23_A
*1691 ANTENNA_input24_A
*1692 ANTENNA_input25_A
*1693 ANTENNA_input26_A
*1694 ANTENNA_input27_A
*1695 ANTENNA_input28_A
*1696 ANTENNA_input29_A
*1697 ANTENNA_input2_A
*1698 ANTENNA_input30_A
*1699 ANTENNA_input31_A
*1700 ANTENNA_input32_A
*1701 ANTENNA_input33_A
*1702 ANTENNA_input34_A
*1703 ANTENNA_input35_A
*1704 ANTENNA_input36_A
*1705 ANTENNA_input37_A
*1706 ANTENNA_input38_A
*1707 ANTENNA_input39_A
*1708 ANTENNA_input3_A
*1709 ANTENNA_input40_A
*1710 ANTENNA_input41_A
*1711 ANTENNA_input42_A
*1712 ANTENNA_input43_A
*1713 ANTENNA_input44_A
*1714 ANTENNA_input45_A
*1715 ANTENNA_input46_A
*1716 ANTENNA_input47_A
*1717 ANTENNA_input48_A
*1718 ANTENNA_input49_A
*1719 ANTENNA_input4_A
*1720 ANTENNA_input50_A
*1721 ANTENNA_input51_A
*1722 ANTENNA_input52_A
*1723 ANTENNA_input53_A
*1724 ANTENNA_input54_A
*1725 ANTENNA_input55_A
*1726 ANTENNA_input56_A
*1727 ANTENNA_input57_A
*1728 ANTENNA_input58_A